Version 4
SHEET 1 1820 980
WIRE 432 -176 -96 -176
WIRE 672 -176 432 -176
WIRE 848 -176 672 -176
WIRE 672 -64 672 -176
WIRE 848 -64 848 -176
WIRE 944 -64 848 -64
WIRE 944 -48 848 -48
WIRE 944 -32 896 -32
WIRE 672 80 672 0
WIRE 672 80 576 80
WIRE 848 80 848 -48
WIRE 848 80 672 80
WIRE -96 96 -96 -176
WIRE 96 96 -96 96
WIRE 96 160 -96 160
WIRE 896 160 896 -32
WIRE 896 160 288 160
WIRE 432 192 432 -176
WIRE 672 192 432 192
WIRE 848 192 672 192
WIRE 96 256 -48 256
WIRE 672 256 672 192
WIRE 848 256 848 192
WIRE 960 256 848 256
WIRE 960 272 848 272
WIRE 960 288 896 288
WIRE 96 304 16 304
WIRE 576 416 576 80
WIRE 672 416 672 320
WIRE 672 416 576 416
WIRE 848 416 848 272
WIRE 848 416 672 416
WIRE 16 464 16 304
WIRE 896 464 896 288
WIRE 896 464 16 464
WIRE 432 496 432 192
WIRE 688 496 432 496
WIRE 848 496 688 496
WIRE 688 544 688 496
WIRE 848 544 848 496
WIRE 944 544 848 544
WIRE 944 560 848 560
WIRE 944 576 896 576
WIRE -96 672 -96 160
WIRE 576 672 576 416
WIRE 576 672 -96 672
WIRE 688 672 688 608
WIRE 688 672 576 672
WIRE 848 672 848 560
WIRE 848 672 688 672
WIRE -48 704 -48 256
WIRE 896 704 896 576
WIRE 896 704 -48 704
SYMBOL Arduino 192 96 R0
SYMATTR InstName X1
SYMBOL MiniServo 976 -48 R90
SYMATTR InstName X2
SYMBOL SEN0193 976 272 R90
SYMATTR InstName X3
SYMBOL TMP36 960 560 R90
SYMATTR InstName X4
SYMBOL cap 656 -64 R0
SYMATTR InstName C1
SYMBOL cap 656 256 R0
SYMATTR InstName C2
SYMBOL cap 672 544 R0
SYMATTR InstName C3
