Version 4
SHEET 1 1820 1272
WIRE -240 32 -288 32
WIRE 272 32 -240 32
WIRE -240 64 -240 32
WIRE 224 64 -80 64
WIRE -288 128 -288 32
WIRE -288 128 -384 128
WIRE -80 128 -80 64
WIRE -16 128 -80 128
WIRE 224 128 224 64
WIRE 224 128 176 128
WIRE -240 144 -240 128
WIRE -240 144 -384 144
WIRE -288 160 -384 160
WIRE -16 160 -288 160
WIRE -240 224 -240 144
WIRE -16 224 -240 224
WIRE 272 224 272 32
WIRE 272 224 176 224
WIRE -16 288 -400 288
WIRE -240 304 -240 224
WIRE -240 304 -400 304
WIRE -288 320 -288 160
WIRE -288 320 -400 320
WIRE -16 320 -80 320
WIRE 272 320 176 320
WIRE 272 352 272 320
WIRE -240 384 -240 304
WIRE -192 384 -240 384
WIRE -80 384 -80 320
WIRE -80 384 -128 384
WIRE -80 432 -80 384
WIRE -80 432 -384 432
WIRE -240 448 -240 384
WIRE -240 448 -384 448
WIRE 48 448 -240 448
WIRE 272 448 272 416
WIRE 272 448 128 448
WIRE -288 464 -288 320
WIRE -288 464 -384 464
WIRE -240 480 -240 448
FLAG -240 480 0
SYMBOL MiniServo -416 144 R270
SYMATTR InstName X2
SYMBOL SEN0193 -416 304 R270
SYMATTR InstName X3
SYMBOL TMP36 -400 448 R270
SYMATTR InstName X4
SYMBOL cap -256 64 R0
SYMATTR InstName Capacitor
SYMATTR Value ""
SYMBOL cap -128 368 R90
WINDOW 0 0 32 VBottom 2
WINDOW 3 32 32 VTop 2
SYMATTR InstName Capacitor
SYMATTR Value ""
SYMBOL res 144 432 R90
WINDOW 0 0 56 VBottom 2
WINDOW 3 32 56 VTop 2
SYMATTR InstName Resistor
SYMATTR Value 220
SYMBOL diode 256 352 R0
SYMATTR InstName LED
SYMATTR Value ""
SYMBOL Datalogger\\Arduino 80 160 R0
SYMATTR InstName X1
