Version 4
SHEET 1 1820 980
WIRE 432 -64 -96 -64
WIRE 672 -64 432 -64
WIRE 848 -64 672 -64
WIRE 672 16 672 -64
WIRE 848 32 848 -64
WIRE 944 32 848 32
WIRE 944 48 848 48
WIRE 944 64 880 64
WIRE -96 96 -96 -64
WIRE 96 96 -96 96
WIRE 672 144 672 80
WIRE 672 144 576 144
WIRE 848 144 848 48
WIRE 848 144 672 144
WIRE 96 160 -96 160
WIRE 880 160 880 64
WIRE 880 160 288 160
WIRE 432 176 432 -64
WIRE 672 176 432 176
WIRE 848 176 672 176
WIRE 96 256 -48 256
WIRE 672 256 672 176
WIRE 848 272 848 176
WIRE 944 272 848 272
WIRE 944 288 848 288
WIRE 96 304 16 304
WIRE 944 304 880 304
WIRE 576 384 576 144
WIRE 672 384 672 320
WIRE 672 384 576 384
WIRE 848 384 848 288
WIRE 848 384 672 384
WIRE 16 400 16 304
WIRE 880 400 880 304
WIRE 880 400 16 400
WIRE 432 416 432 176
WIRE 672 416 432 416
WIRE 848 416 672 416
WIRE 672 496 672 416
WIRE 848 512 848 416
WIRE 944 512 848 512
WIRE 944 528 848 528
WIRE 944 544 880 544
WIRE -96 624 -96 160
WIRE 576 624 576 384
WIRE 576 624 -96 624
WIRE 672 624 672 560
WIRE 672 624 576 624
WIRE 848 624 848 528
WIRE 848 624 672 624
WIRE -48 640 -48 256
WIRE 880 640 880 544
WIRE 880 640 -48 640
SYMBOL Arduino 192 96 R0
SYMATTR InstName X1
SYMBOL MiniServo 976 48 R90
SYMATTR InstName X2
SYMBOL SEN0193 960 288 R90
SYMATTR InstName X3
SYMBOL TMP36 960 528 R90
SYMATTR InstName X4
SYMBOL cap 656 16 R0
SYMATTR InstName C1
SYMBOL cap 656 256 R0
SYMATTR InstName C2
SYMBOL cap 656 496 R0
SYMATTR InstName C3
